BDGD_LineCodes.dss
! ==================================================
! LineCodes Gerados a partir de SEGCON.xlsx
! ==================================================
New linecode.R34_313_1 nphases=1 basefreq=60 r1=0.3650 x1=0.1540 units=km normamps=152.00
New linecode.R34_313_2 nphases=2 basefreq=60 r1=0.3650 x1=0.1540 units=km normamps=152.00
New linecode.R34_313_3 nphases=3 basefreq=60 r1=0.3650 x1=0.1540 units=km normamps=152.00
New linecode.R34_313_4 nphases=4 basefreq=60 r1=0.3650 x1=0.1540 units=km normamps=152.00
New linecode.R34_312_1 nphases=1 basefreq=60 r1=0.2890 x1=0.1490 units=km normamps=229.00
New linecode.R34_312_2 nphases=2 basefreq=60 r1=0.2890 x1=0.1490 units=km normamps=229.00
New linecode.R34_312_3 nphases=3 basefreq=60 r1=0.2890 x1=0.1490 units=km normamps=229.00
New linecode.R34_312_4 nphases=4 basefreq=60 r1=0.2890 x1=0.1490 units=km normamps=229.00
New linecode.R34_311_1 nphases=1 basefreq=60 r1=0.1880 x1=0.1420 units=km normamps=229.00
New linecode.R34_311_2 nphases=2 basefreq=60 r1=0.1880 x1=0.1420 units=km normamps=229.00
New linecode.R34_311_3 nphases=3 basefreq=60 r1=0.1880 x1=0.1420 units=km normamps=229.00
New linecode.R34_311_4 nphases=4 basefreq=60 r1=0.1880 x1=0.1420 units=km normamps=229.00
New linecode.R34_310_1 nphases=1 basefreq=60 r1=0.2890 x1=0.1490 units=km normamps=229.00
New linecode.R34_310_2 nphases=2 basefreq=60 r1=0.2890 x1=0.1490 units=km normamps=229.00
New linecode.R34_310_3 nphases=3 basefreq=60 r1=0.2890 x1=0.1490 units=km normamps=229.00
New linecode.R34_310_4 nphases=4 basefreq=60 r1=0.2890 x1=0.1490 units=km normamps=229.00
New linecode.R34_309_1 nphases=1 basefreq=60 r1=0.3650 x1=0.1540 units=km normamps=152.00
New linecode.R34_309_2 nphases=2 basefreq=60 r1=0.3650 x1=0.1540 units=km normamps=152.00
New linecode.R34_309_3 nphases=3 basefreq=60 r1=0.3650 x1=0.1540 units=km normamps=152.00
New linecode.R34_309_4 nphases=4 basefreq=60 r1=0.3650 x1=0.1540 units=km normamps=152.00
New linecode.R34_308_1 nphases=1 basefreq=60 r1=0.2360 x1=0.0960 units=km normamps=229.00
New linecode.R34_308_2 nphases=2 basefreq=60 r1=0.2360 x1=0.0960 units=km normamps=229.00
New linecode.R34_308_3 nphases=3 basefreq=60 r1=0.2360 x1=0.0960 units=km normamps=229.00
New linecode.R34_308_4 nphases=4 basefreq=60 r1=0.2360 x1=0.0960 units=km normamps=229.00
New linecode.R34_307_1 nphases=1 basefreq=60 r1=0.3650 x1=0.1540 units=km normamps=152.00
New linecode.R34_307_2 nphases=2 basefreq=60 r1=0.3650 x1=0.1540 units=km normamps=152.00
New linecode.R34_307_3 nphases=3 basefreq=60 r1=0.3650 x1=0.1540 units=km normamps=152.00
New linecode.R34_307_4 nphases=4 basefreq=60 r1=0.3650 x1=0.1540 units=km normamps=152.00
New linecode.R34_306_1 nphases=1 basefreq=60 r1=0.5060 x1=0.1300 units=km normamps=152.00
New linecode.R34_306_2 nphases=2 basefreq=60 r1=0.5060 x1=0.1300 units=km normamps=152.00
New linecode.R34_306_3 nphases=3 basefreq=60 r1=0.5060 x1=0.1300 units=km normamps=152.00
New linecode.R34_306_4 nphases=4 basefreq=60 r1=0.5060 x1=0.1300 units=km normamps=152.00
New linecode.R34_305_1 nphases=1 basefreq=60 r1=0.9910 x1=0.1690 units=km normamps=152.00
New linecode.R34_305_2 nphases=2 basefreq=60 r1=0.9910 x1=0.1690 units=km normamps=152.00
New linecode.R34_305_3 nphases=3 basefreq=60 r1=0.9910 x1=0.1690 units=km normamps=152.00
New linecode.R34_305_4 nphases=4 basefreq=60 r1=0.9910 x1=0.1690 units=km normamps=152.00
New linecode.R34_304_1 nphases=1 basefreq=60 r1=0.7320 x1=0.1040 units=km normamps=152.00
New linecode.R34_304_2 nphases=2 basefreq=60 r1=0.7320 x1=0.1040 units=km normamps=152.00
New linecode.R34_304_3 nphases=3 basefreq=60 r1=0.7320 x1=0.1040 units=km normamps=152.00
New linecode.R34_304_4 nphases=4 basefreq=60 r1=0.7320 x1=0.1040 units=km normamps=152.00
New linecode.R34_303_1 nphases=1 basefreq=60 r1=1.3690 x1=0.1090 units=km normamps=152.00
New linecode.R34_303_2 nphases=2 basefreq=60 r1=1.3690 x1=0.1090 units=km normamps=152.00
New linecode.R34_303_3 nphases=3 basefreq=60 r1=1.3690 x1=0.1090 units=km normamps=152.00
New linecode.R34_303_4 nphases=4 basefreq=60 r1=1.3690 x1=0.1090 units=km normamps=152.00
New linecode.R34_302_1 nphases=1 basefreq=60 r1=2.1790 x1=0.0850 units=km normamps=152.00
New linecode.R34_302_2 nphases=2 basefreq=60 r1=2.1790 x1=0.0850 units=km normamps=152.00
New linecode.R34_302_3 nphases=3 basefreq=60 r1=2.1790 x1=0.0850 units=km normamps=152.00
New linecode.R34_302_4 nphases=4 basefreq=60 r1=2.1790 x1=0.0850 units=km normamps=152.00
New linecode.R34_301_1 nphases=1 basefreq=60 r1=3.5140 x1=0.1070 units=km normamps=152.00
New linecode.R34_301_2 nphases=2 basefreq=60 r1=3.5140 x1=0.1070 units=km normamps=152.00
New linecode.R34_301_3 nphases=3 basefreq=60 r1=3.5140 x1=0.1070 units=km normamps=152.00
New linecode.R34_301_4 nphases=4 basefreq=60 r1=3.5140 x1=0.1070 units=km normamps=152.00
New linecode.R34_300_1 nphases=1 basefreq=60 r1=3.5040 x1=0.4488 units=km normamps=152.00
New linecode.R34_300_2 nphases=2 basefreq=60 r1=3.5040 x1=0.4488 units=km normamps=152.00
New linecode.R34_300_3 nphases=3 basefreq=60 r1=3.5040 x1=0.4488 units=km normamps=152.00
New linecode.R34_300_4 nphases=4 basefreq=60 r1=3.5040 x1=0.4488 units=km normamps=152.00
New linecode.R34_240_1 nphases=1 basefreq=60 r1=0.1430 x1=0.1320 units=km normamps=229.00
New linecode.R34_240_2 nphases=2 basefreq=60 r1=0.1430 x1=0.1320 units=km normamps=229.00
New linecode.R34_240_3 nphases=3 basefreq=60 r1=0.1430 x1=0.1320 units=km normamps=229.00
New linecode.R34_240_4 nphases=4 basefreq=60 r1=0.1430 x1=0.1320 units=km normamps=229.00
New linecode.R34_187_1 nphases=1 basefreq=60 r1=0.1880 x1=0.1420 units=km normamps=229.00
New linecode.R34_187_2 nphases=2 basefreq=60 r1=0.1880 x1=0.1420 units=km normamps=229.00
New linecode.R34_187_3 nphases=3 basefreq=60 r1=0.1880 x1=0.1420 units=km normamps=229.00
New linecode.R34_187_4 nphases=4 basefreq=60 r1=0.1880 x1=0.1420 units=km normamps=229.00
New linecode.R34_152_1 nphases=1 basefreq=60 r1=0.2360 x1=0.0960 units=km normamps=229.00
New linecode.R34_152_2 nphases=2 basefreq=60 r1=0.2360 x1=0.0960 units=km normamps=229.00
New linecode.R34_152_3 nphases=3 basefreq=60 r1=0.2360 x1=0.0960 units=km normamps=229.00
New linecode.R34_152_4 nphases=4 basefreq=60 r1=0.2360 x1=0.0960 units=km normamps=229.00
New linecode.R34_122_1 nphases=1 basefreq=60 r1=0.2890 x1=0.1490 units=km normamps=229.00
New linecode.R34_122_2 nphases=2 basefreq=60 r1=0.2890 x1=0.1490 units=km normamps=229.00
New linecode.R34_122_3 nphases=3 basefreq=60 r1=0.2890 x1=0.1490 units=km normamps=229.00
New linecode.R34_122_4 nphases=4 basefreq=60 r1=0.2890 x1=0.1490 units=km normamps=229.00
New linecode.R34_121_1 nphases=1 basefreq=60 r1=0.2890 x1=0.1490 units=km normamps=229.00
New linecode.R34_121_2 nphases=2 basefreq=60 r1=0.2890 x1=0.1490 units=km normamps=229.00
New linecode.R34_121_3 nphases=3 basefreq=60 r1=0.2890 x1=0.1490 units=km normamps=229.00
New linecode.R34_121_4 nphases=4 basefreq=60 r1=0.2890 x1=0.1490 units=km normamps=229.00
New linecode.R34_97_1 nphases=1 basefreq=60 r1=0.3650 x1=0.1540 units=km normamps=152.00
New linecode.R34_97_2 nphases=2 basefreq=60 r1=0.3650 x1=0.1540 units=km normamps=152.00
New linecode.R34_97_3 nphases=3 basefreq=60 r1=0.3650 x1=0.1540 units=km normamps=152.00
New linecode.R34_97_4 nphases=4 basefreq=60 r1=0.3650 x1=0.1540 units=km normamps=152.00
New linecode.R34_96_1 nphases=1 basefreq=60 r1=0.3650 x1=0.1540 units=km normamps=152.00
New linecode.R34_96_2 nphases=2 basefreq=60 r1=0.3650 x1=0.1540 units=km normamps=152.00
New linecode.R34_96_3 nphases=3 basefreq=60 r1=0.3650 x1=0.1540 units=km normamps=152.00
New linecode.R34_96_4 nphases=4 basefreq=60 r1=0.3650 x1=0.1540 units=km normamps=152.00
New linecode.R34_95_1 nphases=1 basefreq=60 r1=0.3650 x1=0.1540 units=km normamps=152.00
New linecode.R34_95_2 nphases=2 basefreq=60 r1=0.3650 x1=0.1540 units=km normamps=152.00
New linecode.R34_95_3 nphases=3 basefreq=60 r1=0.3650 x1=0.1540 units=km normamps=152.00
New linecode.R34_95_4 nphases=4 basefreq=60 r1=0.3650 x1=0.1540 units=km normamps=152.00
New linecode.R34_72_1 nphases=1 basefreq=60 r1=0.5060 x1=0.1300 units=km normamps=152.00
New linecode.R34_72_2 nphases=2 basefreq=60 r1=0.5060 x1=0.1300 units=km normamps=152.00
New linecode.R34_72_3 nphases=3 basefreq=60 r1=0.5060 x1=0.1300 units=km normamps=152.00
New linecode.R34_72_4 nphases=4 basefreq=60 r1=0.5060 x1=0.1300 units=km normamps=152.00
New linecode.R34_71_1 nphases=1 basefreq=60 r1=0.5060 x1=0.1300 units=km normamps=152.00
New linecode.R34_71_2 nphases=2 basefreq=60 r1=0.5060 x1=0.1300 units=km normamps=152.00
New linecode.R34_71_3 nphases=3 basefreq=60 r1=0.5060 x1=0.1300 units=km normamps=152.00
New linecode.R34_71_4 nphases=4 basefreq=60 r1=0.5060 x1=0.1300 units=km normamps=152.00
New linecode.R34_70_1 nphases=1 basefreq=60 r1=0.5060 x1=0.1300 units=km normamps=152.00
New linecode.R34_70_2 nphases=2 basefreq=60 r1=0.5060 x1=0.1300 units=km normamps=152.00
New linecode.R34_70_3 nphases=3 basefreq=60 r1=0.5060 x1=0.1300 units=km normamps=152.00
New linecode.R34_70_4 nphases=4 basefreq=60 r1=0.5060 x1=0.1300 units=km normamps=152.00
New linecode.R34_52_1 nphases=1 basefreq=60 r1=0.7320 x1=0.1040 units=km normamps=152.00
New linecode.R34_52_2 nphases=2 basefreq=60 r1=0.7320 x1=0.1040 units=km normamps=152.00
New linecode.R34_52_3 nphases=3 basefreq=60 r1=0.7320 x1=0.1040 units=km normamps=152.00
New linecode.R34_52_4 nphases=4 basefreq=60 r1=0.7320 x1=0.1040 units=km normamps=152.00
New linecode.R34_51_1 nphases=1 basefreq=60 r1=0.7320 x1=0.1040 units=km normamps=152.00
New linecode.R34_51_2 nphases=2 basefreq=60 r1=0.7320 x1=0.1040 units=km normamps=152.00
New linecode.R34_51_3 nphases=3 basefreq=60 r1=0.7320 x1=0.1040 units=km normamps=152.00
New linecode.R34_51_4 nphases=4 basefreq=60 r1=0.7320 x1=0.1040 units=km normamps=152.00
New linecode.R34_50_1 nphases=1 basefreq=60 r1=0.7320 x1=0.1040 units=km normamps=152.00
New linecode.R34_50_2 nphases=2 basefreq=60 r1=0.7320 x1=0.1040 units=km normamps=152.00
New linecode.R34_50_3 nphases=3 basefreq=60 r1=0.7320 x1=0.1040 units=km normamps=152.00
New linecode.R34_50_4 nphases=4 basefreq=60 r1=0.7320 x1=0.1040 units=km normamps=152.00
New linecode.R34_38_1 nphases=1 basefreq=60 r1=0.9910 x1=0.1690 units=km normamps=152.00
New linecode.R34_38_2 nphases=2 basefreq=60 r1=0.9910 x1=0.1690 units=km normamps=152.00
New linecode.R34_38_3 nphases=3 basefreq=60 r1=0.9910 x1=0.1690 units=km normamps=152.00
New linecode.R34_38_4 nphases=4 basefreq=60 r1=0.9910 x1=0.1690 units=km normamps=152.00
New linecode.R34_36_1 nphases=1 basefreq=60 r1=0.9910 x1=0.1690 units=km normamps=152.00
New linecode.R34_36_2 nphases=2 basefreq=60 r1=0.9910 x1=0.1690 units=km normamps=152.00
New linecode.R34_36_3 nphases=3 basefreq=60 r1=0.9910 x1=0.1690 units=km normamps=152.00
New linecode.R34_36_4 nphases=4 basefreq=60 r1=0.9910 x1=0.1690 units=km normamps=152.00
New linecode.R34_35_1 nphases=1 basefreq=60 r1=0.9910 x1=0.1690 units=km normamps=152.00
New linecode.R34_35_2 nphases=2 basefreq=60 r1=0.9910 x1=0.1690 units=km normamps=152.00
New linecode.R34_35_3 nphases=3 basefreq=60 r1=0.9910 x1=0.1690 units=km normamps=152.00
New linecode.R34_35_4 nphases=4 basefreq=60 r1=0.9910 x1=0.1690 units=km normamps=152.00
New linecode.R34_27_1 nphases=1 basefreq=60 r1=1.3690 x1=0.1090 units=km normamps=152.00
New linecode.R34_27_2 nphases=2 basefreq=60 r1=1.3690 x1=0.1090 units=km normamps=152.00
New linecode.R34_27_3 nphases=3 basefreq=60 r1=1.3690 x1=0.1090 units=km normamps=152.00
New linecode.R34_27_4 nphases=4 basefreq=60 r1=1.3690 x1=0.1090 units=km normamps=152.00
New linecode.R34_26_1 nphases=1 basefreq=60 r1=1.3690 x1=0.1090 units=km normamps=152.00
New linecode.R34_26_2 nphases=2 basefreq=60 r1=1.3690 x1=0.1090 units=km normamps=152.00
New linecode.R34_26_3 nphases=3 basefreq=60 r1=1.3690 x1=0.1090 units=km normamps=152.00
New linecode.R34_26_4 nphases=4 basefreq=60 r1=1.3690 x1=0.1090 units=km normamps=152.00
New linecode.R34_25_1 nphases=1 basefreq=60 r1=1.3690 x1=0.1090 units=km normamps=152.00
New linecode.R34_25_2 nphases=2 basefreq=60 r1=1.3690 x1=0.1090 units=km normamps=152.00
New linecode.R34_25_3 nphases=3 basefreq=60 r1=1.3690 x1=0.1090 units=km normamps=152.00
New linecode.R34_25_4 nphases=4 basefreq=60 r1=1.3690 x1=0.1090 units=km normamps=152.00
New linecode.R34_18_1 nphases=1 basefreq=60 r1=2.1790 x1=0.0850 units=km normamps=152.00
New linecode.R34_18_2 nphases=2 basefreq=60 r1=2.1790 x1=0.0850 units=km normamps=152.00
New linecode.R34_18_3 nphases=3 basefreq=60 r1=2.1790 x1=0.0850 units=km normamps=152.00
New linecode.R34_18_4 nphases=4 basefreq=60 r1=2.1790 x1=0.0850 units=km normamps=152.00
New linecode.R34_17_1 nphases=1 basefreq=60 r1=2.1790 x1=0.0850 units=km normamps=152.00
New linecode.R34_17_2 nphases=2 basefreq=60 r1=2.1790 x1=0.0850 units=km normamps=152.00
New linecode.R34_17_3 nphases=3 basefreq=60 r1=2.1790 x1=0.0850 units=km normamps=152.00
New linecode.R34_17_4 nphases=4 basefreq=60 r1=2.1790 x1=0.0850 units=km normamps=152.00
New linecode.R34_16_1 nphases=1 basefreq=60 r1=2.1790 x1=0.0850 units=km normamps=152.00
New linecode.R34_16_2 nphases=2 basefreq=60 r1=2.1790 x1=0.0850 units=km normamps=152.00
New linecode.R34_16_3 nphases=3 basefreq=60 r1=2.1790 x1=0.0850 units=km normamps=152.00
New linecode.R34_16_4 nphases=4 basefreq=60 r1=2.1790 x1=0.0850 units=km normamps=152.00
New linecode.R34_12_1 nphases=1 basefreq=60 r1=3.5140 x1=0.1070 units=km normamps=152.00
New linecode.R34_12_2 nphases=2 basefreq=60 r1=3.5140 x1=0.1070 units=km normamps=152.00
New linecode.R34_12_3 nphases=3 basefreq=60 r1=3.5140 x1=0.1070 units=km normamps=152.00
New linecode.R34_12_4 nphases=4 basefreq=60 r1=3.5140 x1=0.1070 units=km normamps=152.00
New linecode.R34_11_1 nphases=1 basefreq=60 r1=3.5140 x1=0.1070 units=km normamps=152.00
New linecode.R34_11_2 nphases=2 basefreq=60 r1=3.5140 x1=0.1070 units=km normamps=152.00
New linecode.R34_11_3 nphases=3 basefreq=60 r1=3.5140 x1=0.1070 units=km normamps=152.00
New linecode.R34_11_4 nphases=4 basefreq=60 r1=3.5140 x1=0.1070 units=km normamps=152.00
New linecode.R34_10_1 nphases=1 basefreq=60 r1=3.5140 x1=0.1070 units=km normamps=152.00
New linecode.R34_10_2 nphases=2 basefreq=60 r1=3.5140 x1=0.1070 units=km normamps=152.00
New linecode.R34_10_3 nphases=3 basefreq=60 r1=3.5140 x1=0.1070 units=km normamps=152.00
New linecode.R34_10_4 nphases=4 basefreq=60 r1=3.5140 x1=0.1070 units=km normamps=152.00
New linecode.R34_8_1 nphases=1 basefreq=60 r1=3.5040 x1=0.4488 units=km normamps=152.00
New linecode.R34_8_2 nphases=2 basefreq=60 r1=3.5040 x1=0.4488 units=km normamps=152.00
New linecode.R34_8_3 nphases=3 basefreq=60 r1=3.5040 x1=0.4488 units=km normamps=152.00
New linecode.R34_8_4 nphases=4 basefreq=60 r1=3.5040 x1=0.4488 units=km normamps=152.00
New linecode.R34_6_1 nphases=1 basefreq=60 r1=3.5040 x1=0.4488 units=km normamps=152.00
New linecode.R34_6_2 nphases=2 basefreq=60 r1=3.5040 x1=0.4488 units=km normamps=152.00
New linecode.R34_6_3 nphases=3 basefreq=60 r1=3.5040 x1=0.4488 units=km normamps=152.00
New linecode.R34_6_4 nphases=4 basefreq=60 r1=3.5040 x1=0.4488 units=km normamps=152.00
New linecode.R34_4_1 nphases=1 basefreq=60 r1=5.2440 x1=0.4488 units=km normamps=152.00
New linecode.R34_4_2 nphases=2 basefreq=60 r1=5.2440 x1=0.4488 units=km normamps=152.00
New linecode.R34_4_3 nphases=3 basefreq=60 r1=5.2440 x1=0.4488 units=km normamps=152.00
New linecode.R34_4_4 nphases=4 basefreq=60 r1=5.2440 x1=0.4488 units=km normamps=152.00
New linecode.R33_313_1 nphases=1 basefreq=60 r1=0.3650 x1=0.1540 units=km normamps=152.00
New linecode.R33_313_2 nphases=2 basefreq=60 r1=0.3650 x1=0.1540 units=km normamps=152.00
New linecode.R33_313_3 nphases=3 basefreq=60 r1=0.3650 x1=0.1540 units=km normamps=152.00
New linecode.R33_313_4 nphases=4 basefreq=60 r1=0.3650 x1=0.1540 units=km normamps=152.00
New linecode.R33_312_1 nphases=1 basefreq=60 r1=0.2890 x1=0.1490 units=km normamps=229.00
New linecode.R33_312_2 nphases=2 basefreq=60 r1=0.2890 x1=0.1490 units=km normamps=229.00
New linecode.R33_312_3 nphases=3 basefreq=60 r1=0.2890 x1=0.1490 units=km normamps=229.00
New linecode.R33_312_4 nphases=4 basefreq=60 r1=0.2890 x1=0.1490 units=km normamps=229.00
New linecode.R33_311_1 nphases=1 basefreq=60 r1=0.1880 x1=0.1420 units=km normamps=229.00
New linecode.R33_311_2 nphases=2 basefreq=60 r1=0.1880 x1=0.1420 units=km normamps=229.00
New linecode.R33_311_3 nphases=3 basefreq=60 r1=0.1880 x1=0.1420 units=km normamps=229.00
New linecode.R33_311_4 nphases=4 basefreq=60 r1=0.1880 x1=0.1420 units=km normamps=229.00
New linecode.R33_310_1 nphases=1 basefreq=60 r1=0.2890 x1=0.1490 units=km normamps=229.00
New linecode.R33_310_2 nphases=2 basefreq=60 r1=0.2890 x1=0.1490 units=km normamps=229.00
New linecode.R33_310_3 nphases=3 basefreq=60 r1=0.2890 x1=0.1490 units=km normamps=229.00
New linecode.R33_310_4 nphases=4 basefreq=60 r1=0.2890 x1=0.1490 units=km normamps=229.00
New linecode.R33_309_1 nphases=1 basefreq=60 r1=0.3650 x1=0.1540 units=km normamps=152.00
New linecode.R33_309_2 nphases=2 basefreq=60 r1=0.3650 x1=0.1540 units=km normamps=152.00
New linecode.R33_309_3 nphases=3 basefreq=60 r1=0.3650 x1=0.1540 units=km normamps=152.00
New linecode.R33_309_4 nphases=4 basefreq=60 r1=0.3650 x1=0.1540 units=km normamps=152.00
New linecode.R33_308_1 nphases=1 basefreq=60 r1=0.2360 x1=0.0960 units=km normamps=229.00
New linecode.R33_308_2 nphases=2 basefreq=60 r1=0.2360 x1=0.0960 units=km normamps=229.00
New linecode.R33_308_3 nphases=3 basefreq=60 r1=0.2360 x1=0.0960 units=km normamps=229.00
New linecode.R33_308_4 nphases=4 basefreq=60 r1=0.2360 x1=0.0960 units=km normamps=229.00
New linecode.R33_307_1 nphases=1 basefreq=60 r1=0.3650 x1=0.1540 units=km normamps=152.00
New linecode.R33_307_2 nphases=2 basefreq=60 r1=0.3650 x1=0.1540 units=km normamps=152.00
New linecode.R33_307_3 nphases=3 basefreq=60 r1=0.3650 x1=0.1540 units=km normamps=152.00
New linecode.R33_307_4 nphases=4 basefreq=60 r1=0.3650 x1=0.1540 units=km normamps=152.00
...