BDGD_Lines_SSDBT.dss
! ==================================================
! Lines Geradas a partir de SSDBT.xlsx
! ==================================================
New Line.SBT_2559631_11346558 phases=4 bus1=2559631-9643859.1.2.3.4 bus2=2559631-9643770.1.2.3.4 linecode=B30_60_4 length=0.037209400 units=km
New Line.SBT_2559631_11346559 phases=4 bus1=2559631-9643770.1.2.3.4 bus2=2559631-9643674.1.2.3.4 linecode=B30_60_4 length=0.026530100 units=km
New Line.SBT_2559631_11346560 phases=4 bus1=2559631-9643857.1.2.3.4 bus2=2559631-9643859.1.2.3.4 linecode=B30_13_4 length=0.025266500 units=km
New Line.SBT_2559631_11346561 phases=4 bus1=2559631-9643855.1.2.3.4 bus2=2559631-9644234.1.2.3.4 linecode=B30_13_4 length=0.027924300 units=km
New Line.SBT_2559631_11346562 phases=4 bus1=2559631-9644234.1.2.3.4 bus2=2559631-9643857.1.2.3.4 linecode=B30_13_4 length=0.027484700 units=km
New Line.SBT_2559631_11346563 phases=4 bus1=2559631-9644234.1.2.3.4 bus2=2559631-9644164.1.2.3.4 linecode=B30_60_4 length=0.036472700 units=km
New Line.SBT_2559631_11346564 phases=4 bus1=2559631-9644164.1.2.3.4 bus2=2559631-9644050.1.2.3.4 linecode=B30_60_4 length=0.025656900 units=km
New Line.SBT_2559631_11346565 phases=4 bus1=2559631-9643859.1.2.3.4 bus2=2559631-9644236.1.2.3.4 linecode=B30_43_4 length=0.021272900 units=km
New Line.SBT_2559631_11346566 phases=4 bus1=2559631-9643855.1.2.3.4 bus2=2559631-9643637.1.2.3.4 linecode=B30_13_4 length=0.025748200 units=km
New Line.SBT_2559631_11346567 phases=4 bus1=2559631-9643637.1.2.3.4 bus2=2559631-9644028.1.2.3.4 linecode=B30_11_4 length=0.035947100 units=km
New Line.SBT_2559631_11346568 phases=4 bus1=2559631-9644028.1.2.3.4 bus2=2559631-9644302.1.2.3.4 linecode=B30_11_4 length=0.030963300 units=km
New Line.SBT_2559631_11346569 phases=4 bus1=2559631-9643853.1.2.3.4 bus2=2559631-9644279.1.2.3.4 linecode=B30_60_4 length=0.031992900 units=km
New Line.SBT_2559631_11346570 phases=4 bus1=2559631-9644279.1.2.3.4 bus2=2559631-9643919.1.2.3.4 linecode=B30_60_4 length=0.032622600 units=km
New Line.SBT_2559631_11347090 phases=4 bus1=2559631-9643637.1.2.3.4 bus2=2559631-9643402.1.2.3.4 linecode=B30_43_4 length=0.027852400 units=km
New Line.SBT_2559631_11347091 phases=4 bus1=2559631-9643402.1.2.3.4 bus2=2559631-9643853.1.2.3.4 linecode=B30_43_4 length=0.027570600 units=km
New Line.SBT_2559631_11347104 phases=4 bus1=2559631-9643635.1.2.3.4 bus2=2559631-9643412.1.2.3.4 linecode=B30_43_4 length=0.025940000 units=km
New Line.SBT_2559631_11347105 phases=4 bus1=2559631-9643853.1.2.3.4 bus2=2559631-9643635.1.2.3.4 linecode=B30_43_4 length=0.041997900 units=km