BDGD_Lines_RAMLIG.dss
! ==================================================
! Lines Geradas a partir de RAMLIG.xlsx
! ==================================================
New Line.RAM_13962827RM phases=2 bus1=2559631-9644279.1.4 bus2=15997600PE.1.4 linecode=R13_10_2 length=0.027151820 units=km
New Line.RAM_15039341RM phases=3 bus1=2559631-9644302.1.2.4 bus2=17049541PE.1.2.4 linecode=R22_10_3 length=0.026531280 units=km
New Line.RAM_16275699RM phases=2 bus1=2559631-9643855.1.4 bus2=18256725PE.1.4 linecode=R13_11_2 length=0.013125060 units=km
New Line.RAM_15602540RM phases=2 bus1=2559631-9644279.1.4 bus2=17651187PE.1.4 linecode=R13_10_2 length=0.030175000 units=km
New Line.RAM_15739422RM phases=2 bus1=2559631-9644279.1.4 bus2=17762769PE.1.4 linecode=R13_10_2 length=0.016473420 units=km
New Line.RAM_16055329RM phases=2 bus1=2559631-9644279.1.4 bus2=18038684PE.1.4 linecode=R12_11_2 length=0.023225520 units=km
New Line.RAM_15933197RM phases=2 bus1=2559631-9643857.1.4 bus2=17941651PE.1.4 linecode=R12_11_2 length=0.018285340 units=km
New Line.RAM_16095351RM phases=3 bus1=2559631-9644164.1.2.4 bus2=18076617PE.1.2.4 linecode=R22_10_3 length=0.016604060 units=km
New Line.RAM_16095827RM phases=3 bus1=2559631-9643674.1.2.4 bus2=18077093PE.1.2.4 linecode=R22_10_3 length=0.015367240 units=km
New Line.RAM_15707127RM phases=4 bus1=2559631-9644050.1.2.3.4 bus2=17742781PE.1.2.3.4 linecode=R32_17_4 length=0.016105640 units=km
New Line.RAM_15513031RM phases=2 bus1=2559631-9644302.1.4 bus2=17568889PE.1.4 linecode=R13_10_2 length=0.027907260 units=km
New Line.RAM_16401522RM phases=2 bus1=2559631-9643635.1.4 bus2=18532628PE.1.4 linecode=R13_10_2 length=0.028611580 units=km
New Line.RAM_16403075RM phases=3 bus1=2559631-9643674.1.2.4 bus2=18534181PE.1.2.4 linecode=R22_10_3 length=0.017454640 units=km
New Line.RAM_18305996RM phases=2 bus1=2559631-9643412.1.4 bus2=18848940PE.1.4 linecode=R13_10_2 length=0.017071240 units=km
New Line.RAM_18306372RM phases=3 bus1=2559631-9643402.1.2.4 bus2=18848926PE.1.2.4 linecode=R22_10_3 length=0.010182820 units=km
New Line.RAM_18306373RM phases=3 bus1=2559631-9643402.1.2.4 bus2=18848925PE.1.2.4 linecode=R22_10_3 length=0.019540620 units=km
New Line.RAM_18306374RM phases=3 bus1=2559631-9643402.1.2.4 bus2=18848924PE.1.2.4 linecode=R22_10_3 length=0.013499940 units=km
New Line.RAM_18318722RM phases=2 bus1=2559631-9643674.1.4 bus2=20332585PE.1.4 linecode=R13_10_2 length=0.018796540 units=km
New Line.RAM_18318723RM phases=3 bus1=2559631-9643674.1.2.4 bus2=20221730PE.1.2.4 linecode=R22_10_3 length=0.021255980 units=km
New Line.RAM_18318724RM phases=2 bus1=2559631-9643674.1.4 bus2=20219987PE.1.4 linecode=R13_10_2 length=0.011041920 units=km
New Line.RAM_18318725RM phases=3 bus1=2559631-9643674.1.2.4 bus2=20214872PE.1.2.4 linecode=R22_10_3 length=0.020751880 units=km
New Line.RAM_18319314RM phases=2 bus1=2559631-9643637.1.4 bus2=18850070PE.1.4 linecode=R13_10_2 length=0.013170500 units=km
New Line.RAM_18319315RM phases=2 bus1=2559631-9643637.1.4 bus2=18850069PE.1.4 linecode=R13_10_2 length=0.011147000 units=km
New Line.RAM_18319316RM phases=3 bus1=2559631-9643637.1.2.4 bus2=18850068PE.1.2.4 linecode=R22_10_3 length=0.023374620 units=km
New Line.RAM_18319818RM phases=4 bus1=2559631-9643853.1.2.3.4 bus2=18850506PE.1.2.3.4 linecode=R32_17_4 length=0.010378780 units=km
New Line.RAM_18319819RM phases=2 bus1=2559631-9643855.1.4 bus2=20581066PE.1.4 linecode=R13_10_2 length=0.009164680 units=km
New Line.RAM_18319820RM phases=2 bus1=2559631-9643855.1.4 bus2=20496227PE.1.4 linecode=R13_10_2 length=0.008517160 units=km
New Line.RAM_18319821RM phases=2 bus1=2559631-9643857.1.4 bus2=20687416PE.1.4 linecode=R13_10_2 length=0.016896580 units=km
New Line.RAM_18319822RM phases=3 bus1=2559631-9643857.1.2.4 bus2=20580346PE.1.2.4 linecode=R22_10_3 length=0.013724300 units=km
New Line.RAM_18319823RM phases=2 bus1=2559631-9643859.1.4 bus2=20710855PE.1.4 linecode=R13_10_2 length=0.032269500 units=km
New Line.RAM_18319824RM phases=2 bus1=2559631-9643859.1.4 bus2=20629347PE.1.4 linecode=R13_10_2 length=0.011617020 units=km
New Line.RAM_18319825RM phases=2 bus1=2559631-9643859.1.4 bus2=20607192PE.1.4 linecode=R13_10_2 length=0.032571960 units=km
New Line.RAM_18319826RM phases=2 bus1=2559631-9643859.1.4 bus2=20607191PE.1.4 linecode=R13_10_2 length=0.028152920 units=km
New Line.RAM_18319827RM phases=2 bus1=2559631-9643859.1.4 bus2=20607190PE.1.4 linecode=R13_10_2 length=0.023016780 units=km
New Line.RAM_18319828RM phases=2 bus1=2559631-9643859.1.4 bus2=20585340PE.1.4 linecode=R13_10_2 length=0.013031340 units=km
New Line.RAM_18319829RM phases=2 bus1=2559631-9643859.1.4 bus2=20485255PE.1.4 linecode=R13_10_2 length=0.029643920 units=km
New Line.RAM_18320309RM phases=2 bus1=2559631-9643919.1.4 bus2=18850701PE.1.4 linecode=R13_10_2 length=0.016638140 units=km
New Line.RAM_18320310RM phases=3 bus1=2559631-9643919.1.2.4 bus2=18850700PE.1.2.4 linecode=R22_10_3 length=0.022874780 units=km
New Line.RAM_18320311RM phases=3 bus1=2559631-9643919.1.2.4 bus2=18850699PE.1.2.4 linecode=R22_10_3 length=0.008660580 units=km
New Line.RAM_18320419RM phases=2 bus1=2559631-9643770.1.4 bus2=20426723PE.1.4 linecode=R13_10_2 length=0.027432980 units=km
New Line.RAM_18320420RM phases=2 bus1=2559631-9643770.1.4 bus2=20382238PE.1.4 linecode=R13_10_2 length=0.015720820 units=km
New Line.RAM_18320421RM phases=2 bus1=2559631-9643770.1.4 bus2=20382237PE.1.4 linecode=R13_10_2 length=0.019642860 units=km
New Line.RAM_18320422RM phases=2 bus1=2559631-9643770.1.4 bus2=20345127PE.1.4 linecode=R13_10_2 length=0.026383600 units=km
New Line.RAM_18320423RM phases=2 bus1=2559631-9643770.1.4 bus2=20338938PE.1.4 linecode=R13_10_2 length=0.032491020 units=km
New Line.RAM_18320424RM phases=2 bus1=2559631-9643770.1.4 bus2=20328329PE.1.4 linecode=R13_10_2 length=0.019037940 units=km
New Line.RAM_18320425RM phases=2 bus1=2559631-9643770.1.4 bus2=20326985PE.1.4 linecode=R13_10_2 length=0.026997040 units=km
New Line.RAM_18320426RM phases=2 bus1=2559631-9643770.1.4 bus2=20326335PE.1.4 linecode=R13_10_2 length=0.019356020 units=km
New Line.RAM_18320427RM phases=2 bus1=2559631-9643770.1.4 bus2=20326334PE.1.4 linecode=R13_10_2 length=0.019870060 units=km
New Line.RAM_18320428RM phases=3 bus1=2559631-9643770.1.2.4 bus2=20319900PE.1.2.4 linecode=R22_10_3 length=0.010022360 units=km
New Line.RAM_18320429RM phases=3 bus1=2559631-9643770.1.2.4 bus2=20318411PE.1.2.4 linecode=R22_10_3 length=0.022735620 units=km
New Line.RAM_18320430RM phases=3 bus1=2559631-9643770.1.2.4 bus2=20216294PE.1.2.4 linecode=R22_10_3 length=0.012234720 units=km
New Line.RAM_18321128RM phases=3 bus1=2559631-9644028.1.2.4 bus2=20703811PE.1.2.4 linecode=R22_10_3 length=0.021136700 units=km
New Line.RAM_18321129RM phases=3 bus1=2559631-9644028.1.2.4 bus2=20608436PE.1.2.4 linecode=R22_10_3 length=0.021812620 units=km
New Line.RAM_18321130RM phases=3 bus1=2559631-9644028.1.2.4 bus2=20605941PE.1.2.4 linecode=R22_10_3 length=0.012615280 units=km
New Line.RAM_18321131RM phases=3 bus1=2559631-9644028.1.2.4 bus2=20507410PE.1.2.4 linecode=R22_10_3 length=0.023924160 units=km
New Line.RAM_18321132RM phases=2 bus1=2559631-9644028.1.4 bus2=20476159PE.1.4 linecode=R13_10_2 length=0.010326240 units=km
New Line.RAM_18321238RM phases=3 bus1=2559631-9644050.1.2.4 bus2=18851023PE.1.2.4 linecode=R22_10_3 length=0.013609280 units=km
New Line.RAM_18321239RM phases=2 bus1=2559631-9644050.1.4 bus2=18851022PE.1.4 linecode=R13_10_2 length=0.020548820 units=km
New Line.RAM_18321240RM phases=2 bus1=2559631-9644050.1.4 bus2=18851021PE.1.4 linecode=R13_10_2 length=0.019441220 units=km
New Line.RAM_18321241RM phases=3 bus1=2559631-9644050.1.2.4 bus2=18851020PE.1.2.4 linecode=R22_10_3 length=0.011470760 units=km
New Line.RAM_18321242RM phases=2 bus1=2559631-9644050.1.4 bus2=18851019PE.1.4 linecode=R13_10_2 length=0.023931260 units=km
New Line.RAM_18321243RM phases=2 bus1=2559631-9644050.1.4 bus2=18851018PE.1.4 linecode=R13_10_2 length=0.013776840 units=km
New Line.RAM_18321244RM phases=3 bus1=2559631-9644050.1.2.4 bus2=18851017PE.1.2.4 linecode=R22_10_3 length=0.027765260 units=km
New Line.RAM_18321326RM phases=3 bus1=2559631-9644164.1.2.4 bus2=20452908PE.1.2.4 linecode=R22_10_3 length=0.014549320 units=km
New Line.RAM_18321327RM phases=2 bus1=2559631-9644164.1.4 bus2=20427927PE.1.4 linecode=R13_10_2 length=0.021265920 units=km
New Line.RAM_18321328RM phases=3 bus1=2559631-9644164.1.2.4 bus2=20368844PE.1.2.4 linecode=R22_10_3 length=0.012409380 units=km
New Line.RAM_18321329RM phases=3 bus1=2559631-9644164.1.2.4 bus2=20325347PE.1.2.4 linecode=R22_10_3 length=0.013282680 units=km
New Line.RAM_18321330RM phases=3 bus1=2559631-9644164.1.2.4 bus2=20324401PE.1.2.4 linecode=R22_10_3 length=0.025473380 units=km
New Line.RAM_18321331RM phases=2 bus1=2559631-9644164.1.4 bus2=20321714PE.1.4 linecode=R13_10_2 length=0.021657840 units=km
New Line.RAM_18321332RM phases=2 bus1=2559631-9644164.1.4 bus2=20318326PE.1.4 linecode=R13_10_2 length=0.016324320 units=km
New Line.RAM_18321333RM phases=2 bus1=2559631-9644164.1.4 bus2=20318325PE.1.4 linecode=R13_10_2 length=0.026589500 units=km
New Line.RAM_18321334RM phases=2 bus1=2559631-9644164.1.4 bus2=20218177PE.1.4 linecode=R13_10_2 length=0.008767080 units=km
New Line.RAM_18321809RM phases=2 bus1=2559631-9644234.1.4 bus2=18960076PE.1.4 linecode=R13_10_2 length=0.013031340 units=km
New Line.RAM_18321810RM phases=2 bus1=2559631-9644234.1.4 bus2=18960075PE.1.4 linecode=R13_10_2 length=0.016801440 units=km
New Line.RAM_18321811RM phases=2 bus1=2559631-9644234.1.4 bus2=18960074PE.1.4 linecode=R13_10_2 length=0.016899420 units=km
New Line.RAM_18321812RM phases=3 bus1=2559631-9644236.1.2.4 bus2=20145261PE.1.2.4 linecode=R22_10_3 length=0.012934780 units=km
New Line.RAM_18321813RM phases=2 bus1=2559631-9644236.1.4 bus2=20114977PE.1.4 linecode=R13_10_2 length=0.015492200 units=km
New Line.RAM_18321814RM phases=2 bus1=2559631-9644236.1.4 bus2=20088684PE.1.4 linecode=R13_10_2 length=0.013196060 units=km
New Line.RAM_18321815RM phases=3 bus1=2559631-9644236.1.2.4 bus2=20072678PE.1.2.4 linecode=R22_10_3 length=0.017602320 units=km
New Line.RAM_18321913RM phases=3 bus1=2559631-9644302.1.2.4 bus2=18848662PE.1.2.4 linecode=R22_10_3 length=0.026220300 units=km
New Line.RAM_18321914RM phases=2 bus1=2559631-9644302.1.4 bus2=18848661PE.1.4 linecode=R13_10_2 length=0.010466820 units=km
New Line.RAM_18321915RM phases=3 bus1=2559631-9644302.1.2.4 bus2=18848660PE.1.2.4 linecode=R22_10_3 length=0.013556740 units=km
New Line.RAM_18321916RM phases=3 bus1=2559631-9644302.1.2.4 bus2=18848659PE.1.2.4 linecode=R22_10_3 length=0.024727880 units=km
New Line.RAM_18322007RM phases=2 bus1=2559631-9644279.1.4 bus2=20198109PE.1.4 linecode=R13_10_2 length=0.021363900 units=km
New Line.RAM_18322008RM phases=3 bus1=2559631-9644279.1.2.4 bus2=20142788PE.1.2.4 linecode=R22_10_3 length=0.017480200 units=km
New Line.RAM_18322009RM phases=3 bus1=2559631-9644279.1.2.4 bus2=20128427PE.1.2.4 linecode=R22_10_3 length=0.021941840 units=km
New Line.RAM_18322010RM phases=2 bus1=2559631-9644279.1.4 bus2=20109795PE.1.4 linecode=R13_10_2 length=0.021549920 units=km
New Line.RAM_18322011RM phases=2 bus1=2559631-9644279.1.4 bus2=20061309PE.1.4 linecode=R13_10_2 length=0.011399760 units=km
New Line.RAM_18322012RM phases=2 bus1=2559631-9644279.1.4 bus2=19995665PE.1.4 linecode=R13_10_2 length=0.025447820 units=km
New Line.RAM_18322013RM phases=2 bus1=2559631-9644279.1.4 bus2=19968121PE.1.4 linecode=R13_10_2 length=0.010709640 units=km
New Line.RAM_4668578RM phases=3 bus1=2559631-9644028.1.2.4 bus2=6302780PE.1.2.4 linecode=R22_10_3 length=0.013947240 units=km
New Line.RAM_18745359RM phases=2 bus1=2559631-9643674.1.4 bus2=20798392PE.1.4 linecode=R12_11_2 length=0.021280120 units=km