BDGD_Loads_UCBT.dss
! ==================================================
! Loads Gerados a partir de UCBT.xlsx
! ==================================================
New Load.BT_18321813RM phases=1 bus1=20114977PE.1.4 conn=Wye kv=0.1270 kw=0.3116000 model=1 pf=0.92 status=Variable vmaxpu=1.5 vminpu=0.6 daily=RES-Tipo5_DU
New Load.BT_16095827RM phases=2 bus1=18077093PE.1.2.4 conn=Wye kv=0.2200 kw=0.7492000 model=1 pf=0.92 status=Variable vmaxpu=1.5 vminpu=0.6 daily=RES-Tipo5_DU
New Load.BT_18319823RM phases=1 bus1=20710855PE.1.4 conn=Wye kv=0.1270 kw=0.1018000 model=1 pf=0.92 status=Variable vmaxpu=1.5 vminpu=0.6 daily=RES-Tipo6_DU
New Load.BT_18306374RM phases=2 bus1=18848924PE.1.2.4 conn=Wye kv=0.2200 kw=0.4518000 model=1 pf=0.92 status=Variable vmaxpu=1.5 vminpu=0.6 daily=RES-Tipo6_DU
New Load.BT_16403075RM phases=2 bus1=18534181PE.1.2.4 conn=Wye kv=0.2200 kw=0.8823000 model=1 pf=0.92 status=Variable vmaxpu=1.5 vminpu=0.6 daily=RES-Tipo6_DU
New Load.BT_18318725RM phases=2 bus1=20214872PE.1.2.4 conn=Wye kv=0.2200 kw=0.4174000 model=1 pf=0.92 status=Variable vmaxpu=1.5 vminpu=0.6 daily=RES-Tipo3_DU
New Load.BT_16401522RM phases=1 bus1=18532628PE.1.4 conn=Wye kv=0.1270 kw=0.1351000 model=1 pf=0.92 status=Variable vmaxpu=1.5 vminpu=0.6 daily=COM-Tipo6_DU
New Load.BT_18322009RM phases=2 bus1=20128427PE.1.2.4 conn=Wye kv=0.2200 kw=0.0000000 model=1 pf=0.92 status=Variable vmaxpu=1.5 vminpu=0.6 daily=COM-Tipo6_DU
New Load.BT_18322008RM phases=2 bus1=20142788PE.1.2.4 conn=Wye kv=0.2200 kw=0.0947000 model=1 pf=0.92 status=Variable vmaxpu=1.5 vminpu=0.6 daily=RES-Tipo6_DU
New Load.BT_18321914RM phases=1 bus1=18848661PE.1.4 conn=Wye kv=0.1270 kw=0.5267000 model=1 pf=0.92 status=Variable vmaxpu=1.5 vminpu=0.6 daily=RES-Tipo3_DU
New Load.BT_18321913RM phases=2 bus1=18848662PE.1.2.4 conn=Wye kv=0.2200 kw=0.6301000 model=1 pf=0.92 status=Variable vmaxpu=1.5 vminpu=0.6 daily=RES-Tipo3_DU
New Load.BT_18320421RM phases=1 bus1=20382237PE.1.4 conn=Wye kv=0.1270 kw=0.1768000 model=1 pf=0.92 status=Variable vmaxpu=1.5 vminpu=0.6 daily=RES-Tipo5_DU
New Load.BT_18320420RM phases=1 bus1=20382238PE.1.4 conn=Wye kv=0.1270 kw=0.2243000 model=1 pf=0.92 status=Variable vmaxpu=1.5 vminpu=0.6 daily=RES-Tipo5_DU
New Load.BT_18319314RM phases=1 bus1=18850070PE.1.4 conn=Wye kv=0.1270 kw=0.0000000 model=1 pf=0.92 status=Variable vmaxpu=1.5 vminpu=0.6 daily=RES-Tipo3_DU
New Load.BT_18321132RM phases=1 bus1=20476159PE.1.4 conn=Wye kv=0.1270 kw=0.3982000 model=1 pf=0.92 status=Variable vmaxpu=1.5 vminpu=0.6 daily=RES-Tipo3_DU
New Load.BT_4668578RM phases=2 bus1=6302780PE.1.2.4 conn=Wye kv=0.2200 kw=0.0090000 model=1 pf=0.92 status=Variable vmaxpu=1.5 vminpu=0.6 daily=RES-Tipo3_DU
New Load.BT_18321812RM phases=2 bus1=20145261PE.1.2.4 conn=Wye kv=0.2200 kw=1.0029000 model=1 pf=0.92 status=Variable vmaxpu=1.5 vminpu=0.6 daily=RES-Tipo7_DU
New Load.BT_18319820RM phases=1 bus1=20496227PE.1.4 conn=Wye kv=0.1270 kw=0.9957000 model=1 pf=0.92 status=Variable vmaxpu=1.5 vminpu=0.6 daily=RES-Tipo5_DU
New Load.BT_18320311RM phases=2 bus1=18850699PE.1.2.4 conn=Wye kv=0.2200 kw=1.0885000 model=1 pf=0.92 status=Variable vmaxpu=1.5 vminpu=0.6 daily=RES-Tipo7_DU
New Load.BT_18321131RM phases=2 bus1=20507410PE.1.2.4 conn=Wye kv=0.2200 kw=0.6543000 model=1 pf=0.92 status=Variable vmaxpu=1.5 vminpu=0.6 daily=RES-Tipo7_DU
New Load.BT_18321330RM phases=2 bus1=20324401PE.1.2.4 conn=Wye kv=0.2200 kw=0.4505000 model=1 pf=0.92 status=Variable vmaxpu=1.5 vminpu=0.6 daily=RES-Tipo3_DU
New Load.BT_18320425RM phases=1 bus1=20326985PE.1.4 conn=Wye kv=0.1270 kw=0.2868000 model=1 pf=0.92 status=Variable vmaxpu=1.5 vminpu=0.6 daily=RES-Tipo3_DU
New Load.BT_18321329RM phases=2 bus1=20325347PE.1.2.4 conn=Wye kv=0.2200 kw=0.0000000 model=1 pf=0.92 status=Variable vmaxpu=1.5 vminpu=0.6 daily=RES-Tipo3_DU
New Load.BT_18305996RM phases=1 bus1=18848940PE.1.4 conn=Wye kv=0.1270 kw=0.1139000 model=1 pf=0.92 status=Variable vmaxpu=1.5 vminpu=0.6 daily=COM-Tipo3_DU
New Load.BT_18319822RM phases=2 bus1=20580346PE.1.2.4 conn=Wye kv=0.2200 kw=0.6562000 model=1 pf=0.92 status=Variable vmaxpu=1.5 vminpu=0.6 daily=RES-Tipo3_DU
New Load.BT_18321333RM phases=1 bus1=20318325PE.1.4 conn=Wye kv=0.1270 kw=0.2743000 model=1 pf=0.92 status=Variable vmaxpu=1.5 vminpu=0.6 daily=RES-Tipo3_DU
New Load.BT_18321332RM phases=1 bus1=20318326PE.1.4 conn=Wye kv=0.1270 kw=0.3500000 model=1 pf=0.92 status=Variable vmaxpu=1.5 vminpu=0.6 daily=RES-Tipo3_DU
New Load.BT_18306372RM phases=2 bus1=18848926PE.1.2.4 conn=Wye kv=0.2200 kw=0.7230000 model=1 pf=0.92 status=Variable vmaxpu=1.5 vminpu=0.6 daily=RES-Tipo3_DU
New Load.BT_18319315RM phases=1 bus1=18850069PE.1.4 conn=Wye kv=0.1270 kw=0.2918000 model=1 pf=0.92 status=Variable vmaxpu=1.5 vminpu=0.6 daily=RES-Tipo3_DU
New Load.BT_18320429RM phases=2 bus1=20318411PE.1.2.4 conn=Wye kv=0.2200 kw=1.5120000 model=1 pf=0.92 status=Variable vmaxpu=1.5 vminpu=0.6 daily=RES-Tipo3_DU
New Load.BT_18321128RM phases=2 bus1=20703811PE.1.2.4 conn=Wye kv=0.2200 kw=0.8561000 model=1 pf=0.92 status=Variable vmaxpu=1.5 vminpu=0.6 daily=RES-Tipo3_DU
New Load.BT_18319818RM phases=3 bus1=18850506PE.1.2.3.4 conn=Wye kv=0.2200 kw=1.8759000 model=1 pf=0.92 status=Variable vmaxpu=1.5 vminpu=0.6 daily=RES-Tipo3_DU
New Load.BT_18319821RM phases=1 bus1=20687416PE.1.4 conn=Wye kv=0.1270 kw=0.4660000 model=1 pf=0.92 status=Variable vmaxpu=1.5 vminpu=0.6 daily=RES-Tipo8_DU
New Load.BT_18319819RM phases=1 bus1=20581066PE.1.4 conn=Wye kv=0.1270 kw=0.2123000 model=1 pf=0.92 status=Variable vmaxpu=1.5 vminpu=0.6 daily=RES-Tipo3_DU
New Load.BT_18306373RM phases=2 bus1=18848925PE.1.2.4 conn=Wye kv=0.2200 kw=1.5294000 model=1 pf=0.92 status=Variable vmaxpu=1.5 vminpu=0.6 daily=RES-Tipo3_DU
New Load.BT_18318723RM phases=2 bus1=20221730PE.1.2.4 conn=Wye kv=0.2200 kw=0.4190000 model=1 pf=0.92 status=Variable vmaxpu=1.5 vminpu=0.6 daily=RES-Tipo3_DU
New Load.BT_18321815RM phases=2 bus1=20072678PE.1.2.4 conn=Wye kv=0.2200 kw=0.6548000 model=1 pf=0.92 status=Variable vmaxpu=1.5 vminpu=0.6 daily=RES-Tipo3_DU
New Load.BT_18321809RM phases=1 bus1=18960076PE.1.4 conn=Wye kv=0.1270 kw=0.1211000 model=1 pf=0.92 status=Variable vmaxpu=1.5 vminpu=0.6 daily=RES-Tipo3_DU
New Load.BT_18320423RM phases=1 bus1=20338938PE.1.4 conn=Wye kv=0.1270 kw=0.1590000 model=1 pf=0.92 status=Variable vmaxpu=1.5 vminpu=0.6 daily=RES-Tipo3_DU
New Load.BT_18321331RM phases=1 bus1=20321714PE.1.4 conn=Wye kv=0.1270 kw=0.5143000 model=1 pf=0.92 status=Variable vmaxpu=1.5 vminpu=0.6 daily=RES-Tipo3_DU
New Load.BT_18320427RM phases=1 bus1=20326334PE.1.4 conn=Wye kv=0.1270 kw=0.1675000 model=1 pf=0.92 status=Variable vmaxpu=1.5 vminpu=0.6 daily=RES-Tipo3_DU
New Load.BT_18320426RM phases=1 bus1=20326335PE.1.4 conn=Wye kv=0.1270 kw=0.0638000 model=1 pf=0.92 status=Variable vmaxpu=1.5 vminpu=0.6 daily=RES-Tipo3_DU
New Load.BT_18321334RM phases=1 bus1=20218177PE.1.4 conn=Wye kv=0.1270 kw=0.5463000 model=1 pf=0.92 status=Variable vmaxpu=1.5 vminpu=0.6 daily=RES-Tipo3_DU
New Load.BT_18320424RM phases=1 bus1=20328329PE.1.4 conn=Wye kv=0.1270 kw=0.1152000 model=1 pf=0.92 status=Variable vmaxpu=1.5 vminpu=0.6 daily=RES-Tipo3_DU
New Load.BT_18321240RM phases=1 bus1=18851021PE.1.4 conn=Wye kv=0.1270 kw=0.8114000 model=1 pf=0.92 status=Variable vmaxpu=1.5 vminpu=0.6 daily=RES-Tipo3_DU
New Load.BT_18321238RM phases=2 bus1=18851023PE.1.2.4 conn=Wye kv=0.2200 kw=0.9717000 model=1 pf=0.92 status=Variable vmaxpu=1.5 vminpu=0.6 daily=RES-Tipo3_DU
New Load.BT_18321242RM phases=1 bus1=18851019PE.1.4 conn=Wye kv=0.1270 kw=0.2749000 model=1 pf=0.92 status=Variable vmaxpu=1.5 vminpu=0.6 daily=RES-Tipo3_DU
New Load.BT_18321239RM phases=1 bus1=18851022PE.1.4 conn=Wye kv=0.1270 kw=0.3707000 model=1 pf=0.92 status=Variable vmaxpu=1.5 vminpu=0.6 daily=RES-Tipo3_DU
New Load.BT_18320428RM phases=2 bus1=20319900PE.1.2.4 conn=Wye kv=0.2200 kw=0.9514000 model=1 pf=0.92 status=Variable vmaxpu=1.5 vminpu=0.6 daily=RES-Tipo3_DU
New Load.BT_18320430RM phases=2 bus1=20216294PE.1.2.4 conn=Wye kv=0.2200 kw=0.4691000 model=1 pf=0.92 status=Variable vmaxpu=1.5 vminpu=0.6 daily=RES-Tipo3_DU
New Load.BT_18322011RM phases=1 bus1=20061309PE.1.4 conn=Wye kv=0.1270 kw=0.0000000 model=1 pf=0.92 status=Variable vmaxpu=1.5 vminpu=0.6 daily=RES-Tipo3_DU
New Load.BT_18320419RM phases=1 bus1=20426723PE.1.4 conn=Wye kv=0.1270 kw=0.7788000 model=1 pf=0.92 status=Variable vmaxpu=1.5 vminpu=0.6 daily=RES-Tipo8_DU
New Load.BT_18321130RM phases=2 bus1=20605941PE.1.2.4 conn=Wye kv=0.2200 kw=1.1015000 model=1 pf=0.92 status=Variable vmaxpu=1.5 vminpu=0.6 daily=RES-Tipo4_DU
New Load.BT_18321241RM phases=2 bus1=18851020PE.1.2.4 conn=Wye kv=0.2200 kw=0.8412000 model=1 pf=0.92 status=Variable vmaxpu=1.5 vminpu=0.6 daily=RES-Tipo3_DU
New Load.BT_18321810RM phases=1 bus1=18960075PE.1.4 conn=Wye kv=0.1270 kw=0.9352000 model=1 pf=0.92 status=Variable vmaxpu=1.5 vminpu=0.6 daily=RES-Tipo7_DU
New Load.BT_18321811RM phases=1 bus1=18960074PE.1.4 conn=Wye kv=0.1270 kw=0.6591000 model=1 pf=0.92 status=Variable vmaxpu=1.5 vminpu=0.6 daily=RES-Tipo7_DU
New Load.BT_18319316RM phases=2 bus1=18850068PE.1.2.4 conn=Wye kv=0.2200 kw=0.4143000 model=1 pf=0.92 status=Variable vmaxpu=1.5 vminpu=0.6 daily=RES-Tipo3_DU
New Load.BT_18319828RM phases=1 bus1=20585340PE.1.4 conn=Wye kv=0.1270 kw=0.2963000 model=1 pf=0.92 status=Variable vmaxpu=1.5 vminpu=0.6 daily=RES-Tipo3_DU
New Load.BT_18321327RM phases=1 bus1=20427927PE.1.4 conn=Wye kv=0.1270 kw=0.4534000 model=1 pf=0.92 status=Variable vmaxpu=1.5 vminpu=0.6 daily=RES-Tipo8_DU
New Load.BT_16095351RM phases=2 bus1=18076617PE.1.2.4 conn=Wye kv=0.2200 kw=0.3211000 model=1 pf=0.92 status=Variable vmaxpu=1.5 vminpu=0.6 daily=RES-Tipo7_DU
New Load.BT_18318722RM phases=1 bus1=20332585PE.1.4 conn=Wye kv=0.1270 kw=0.4775000 model=1 pf=0.92 status=Variable vmaxpu=1.5 vminpu=0.6 daily=RES-Tipo3_DU
New Load.BT_18318724RM phases=1 bus1=20219987PE.1.4 conn=Wye kv=0.1270 kw=0.4207000 model=1 pf=0.92 status=Variable vmaxpu=1.5 vminpu=0.6 daily=RES-Tipo3_DU
New Load.BT_15513031RM phases=1 bus1=17568889PE.1.4 conn=Wye kv=0.1270 kw=0.1189000 model=1 pf=0.92 status=Variable vmaxpu=1.5 vminpu=0.6 daily=RES-Tipo9_DU
New Load.BT_15602540RM phases=1 bus1=17651187PE.1.4 conn=Wye kv=0.1270 kw=0.1738000 model=1 pf=0.92 status=Variable vmaxpu=1.5 vminpu=0.6 daily=RES-Tipo9_DU
New Load.BT_18745359RM phases=1 bus1=20798392PE.1.4 conn=Wye kv=0.1270 kw=0.3151000 model=1 pf=0.92 status=Variable vmaxpu=1.5 vminpu=0.6 daily=RES-Tipo9_DU
New Load.BT_15707127RM phases=3 bus1=17742781PE.1.2.3.4 conn=Wye kv=0.2200 kw=0.2429000 model=1 pf=0.92 status=Variable vmaxpu=1.5 vminpu=0.6 daily=RES-Tipo9_DU
New Load.BT_16055329RM phases=1 bus1=18038684PE.1.4 conn=Wye kv=0.1270 kw=0.1389000 model=1 pf=0.92 status=Variable vmaxpu=1.5 vminpu=0.6 daily=RES-Tipo9_DU
New Load.BT_18321244RM phases=2 bus1=18851017PE.1.2.4 conn=Wye kv=0.2200 kw=0.2028000 model=1 pf=0.92 status=Variable vmaxpu=1.5 vminpu=0.6 daily=RES-Tipo9_DU
New Load.BT_18321129RM phases=2 bus1=20608436PE.1.2.4 conn=Wye kv=0.2200 kw=0.5332000 model=1 pf=0.92 status=Variable vmaxpu=1.5 vminpu=0.6 daily=RES-Tipo4_DU
New Load.BT_18320310RM phases=2 bus1=18850700PE.1.2.4 conn=Wye kv=0.2200 kw=0.9263000 model=1 pf=0.92 status=Variable vmaxpu=1.5 vminpu=0.6 daily=RES-Tipo1_DU
New Load.BT_15933197RM phases=1 bus1=17941651PE.1.4 conn=Wye kv=0.1270 kw=0.3957000 model=1 pf=0.92 status=Variable vmaxpu=1.5 vminpu=0.6 daily=RES-Tipo9_DU
New Load.BT_13962827RM phases=1 bus1=15997600PE.1.4 conn=Wye kv=0.1270 kw=0.1876000 model=1 pf=0.92 status=Variable vmaxpu=1.5 vminpu=0.6 daily=RES-Tipo8_DU
New Load.BT_15739422RM phases=1 bus1=17762769PE.1.4 conn=Wye kv=0.1270 kw=0.0238000 model=1 pf=0.92 status=Variable vmaxpu=1.5 vminpu=0.6 daily=RES-Tipo9_DU
New Load.BT_16275699RM phases=1 bus1=18256725PE.1.4 conn=Wye kv=0.1270 kw=0.4267000 model=1 pf=0.92 status=Variable vmaxpu=1.5 vminpu=0.6 daily=RES-Tipo9_DU
New Load.BT_18319827RM phases=1 bus1=20607190PE.1.4 conn=Wye kv=0.1270 kw=0.3833000 model=1 pf=0.92 status=Variable vmaxpu=1.5 vminpu=0.6 daily=RES-Tipo4_DU
New Load.BT_18319826RM phases=1 bus1=20607191PE.1.4 conn=Wye kv=0.1270 kw=0.0887000 model=1 pf=0.92 status=Variable vmaxpu=1.5 vminpu=0.6 daily=RES-Tipo4_DU
New Load.BT_18319829RM phases=1 bus1=20485255PE.1.4 conn=Wye kv=0.1270 kw=0.0312000 model=1 pf=0.92 status=Variable vmaxpu=1.5 vminpu=0.6 daily=RES-Tipo4_DU
New Load.BT_18319825RM phases=1 bus1=20607192PE.1.4 conn=Wye kv=0.1270 kw=0.0727000 model=1 pf=0.92 status=Variable vmaxpu=1.5 vminpu=0.6 daily=RES-Tipo4_DU
New Load.BT_18320422RM phases=1 bus1=20345127PE.1.4 conn=Wye kv=0.1270 kw=0.2323000 model=1 pf=0.92 status=Variable vmaxpu=1.5 vminpu=0.6 daily=RES-Tipo4_DU
New Load.BT_18321243RM phases=1 bus1=18851018PE.1.4 conn=Wye kv=0.1270 kw=0.2088000 model=1 pf=0.92 status=Variable vmaxpu=1.5 vminpu=0.6 daily=RES-Tipo9_DU
New Load.BT_18322012RM phases=1 bus1=19995665PE.1.4 conn=Wye kv=0.1270 kw=0.0557000 model=1 pf=0.92 status=Variable vmaxpu=1.5 vminpu=0.6 daily=RES-Tipo9_DU
New Load.BT_18321814RM phases=1 bus1=20088684PE.1.4 conn=Wye kv=0.1270 kw=0.3213000 model=1 pf=0.92 status=Variable vmaxpu=1.5 vminpu=0.6 daily=RES-Tipo4_DU
New Load.BT_18320309RM phases=1 bus1=18850701PE.1.4 conn=Wye kv=0.1270 kw=0.1882000 model=1 pf=0.92 status=Variable vmaxpu=1.5 vminpu=0.6 daily=RES-Tipo9_DU
New Load.BT_18321326RM phases=2 bus1=20452908PE.1.2.4 conn=Wye kv=0.2200 kw=0.6362000 model=1 pf=0.92 status=Variable vmaxpu=1.5 vminpu=0.6 daily=RES-Tipo9_DU
New Load.BT_18322007RM phases=1 bus1=20198109PE.1.4 conn=Wye kv=0.1270 kw=0.2980000 model=1 pf=0.92 status=Variable vmaxpu=1.5 vminpu=0.6 daily=RES-Tipo9_DU
New Load.BT_15039341RM phases=2 bus1=17049541PE.1.2.4 conn=Wye kv=0.2200 kw=0.4880000 model=1 pf=0.92 status=Variable vmaxpu=1.5 vminpu=0.6 daily=RES-Tipo9_DU
New Load.BT_18319824RM phases=1 bus1=20629347PE.1.4 conn=Wye kv=0.1270 kw=0.6095000 model=1 pf=0.92 status=Variable vmaxpu=1.5 vminpu=0.6 daily=RES-Tipo4_DU
New Load.BT_18322010RM phases=1 bus1=20109795PE.1.4 conn=Wye kv=0.1270 kw=0.3489000 model=1 pf=0.92 status=Variable vmaxpu=1.5 vminpu=0.6 daily=RES-Tipo5_DU
New Load.BT_18321328RM phases=2 bus1=20368844PE.1.2.4 conn=Wye kv=0.2200 kw=0.8356000 model=1 pf=0.92 status=Variable vmaxpu=1.5 vminpu=0.6 daily=RES-Tipo5_DU
New Load.BT_18321915RM phases=2 bus1=18848660PE.1.2.4 conn=Wye kv=0.2200 kw=1.6286000 model=1 pf=0.92 status=Variable vmaxpu=1.5 vminpu=0.6 daily=RES-Tipo4_DU
New Load.BT_18321916RM phases=2 bus1=18848659PE.1.2.4 conn=Wye kv=0.2200 kw=0.7927000 model=1 pf=0.92 status=Variable vmaxpu=1.5 vminpu=0.6 daily=RES-Tipo4_DU
New Load.BT_18322013RM phases=1 bus1=19968121PE.1.4 conn=Wye kv=0.1270 kw=0.2144000 model=1 pf=0.92 status=Variable vmaxpu=1.5 vminpu=0.6 daily=RES-Tipo4_DU